mh_co.csv
# mh_co.csv run at 2023-03-28 01:00:00 EDT on 172 links
link_name,currA_mag,currA_angle,currB_mag,currB_angle,currC_mag,currC_angle
nsourcetosource,0.000000,3.275883,0.000000,0.125420,0.000000,0.130415
sourceton00,0.174449,-0.174737,0.229396,4.047401,0.201381,2.093497
n00tonB,0.022401,-0.531441,0.014500,4.185718,0.032864,2.092930
nBtonab7,0.022401,-0.531440,0.014500,4.185718,0.032864,2.092930
nab7tonab8,0.022401,-0.531440,0.014500,4.185718,0.032864,2.092930
nab8tonab9,0.022401,-0.531440,0.014500,4.185718,0.032864,2.092930
nab9tonab9_1,0.014934,-0.531439,0.009667,4.185721,0.023219,2.092997
nab9_1tonab9_2,0.014934,-0.531439,0.009667,4.185719,0.023219,2.092997
nab9_2tonab9_3,0.007467,-0.531441,0.004833,4.185723,0.013574,2.093157
nab9_3tonab9_4,0.007467,-0.531439,0.004833,4.185720,0.013574,2.093159
nab9_4tomab9_5,0.007467,-0.531440,0.004833,4.185720,0.013574,2.093160
nab9_2tonab9_6,0.007467,-0.531437,0.004833,4.185711,0.009645,2.092774
nab9_6tonab9_7,0.007467,-0.531437,0.004833,4.185719,0.009645,2.092773
nab9_7tonab9_8,0.007467,-0.531439,0.004833,4.185719,0.009645,2.092773
nab9_8tomab9_9,0.007467,-0.531439,0.004833,4.185720,0.009645,2.092771
nab9tonab9_10,0.007467,-0.531441,0.004833,4.185713,0.009645,2.092769
nab9_10tonab9_11,0.007467,-0.531440,0.004833,4.185715,0.009645,2.092770
nab9_11tonab9_12,0.007467,-0.531440,0.004833,4.185712,0.009645,2.092769
nab9_12tonab9_13,0.007467,-0.531440,0.004833,4.185712,0.009645,2.092769
nab9_13tonab9_14,0.007467,-0.531440,0.004833,4.185712,0.009645,2.092769
nab9_14tonab9_15,0.000000,-0.785398,0.000000,2.999696,0.000000,-0.785398
nab9_15tonab9_16,0.000000,0.430741,0.000000,2.356194,0.000000,3.926991
nab9_16tomab9_17,0.000000,1.773962,0.000000,-0.260490,0.000000,-1.367638
nab9_14tonab9_18,0.007467,-0.531441,0.004833,4.185716,0.009645,2.092770
nab9_18tonab9_19,0.007467,-0.531441,0.004833,4.185716,0.009645,2.092770
nab9_19tonab9_20,0.007467,-0.531438,0.004833,4.185713,0.009645,2.092773
nab9_20tomab9_21,0.007467,-0.531439,0.004833,4.185720,0.009645,2.092772
n00tonA,0.022400,-0.531387,0.014500,4.185767,0.028934,2.092860
nAtonab1,0.022400,-0.531387,0.014500,4.185766,0.028934,2.092860
nab1onab2,0.022400,-0.531387,0.014500,4.185766,0.028934,2.092860
nab2tonab3,0.022400,-0.531387,0.014500,4.185766,0.028934,2.092860
nab3tonab4,0.022400,-0.531387,0.014500,4.185766,0.028934,2.092860
nab4tonab4_1,0.022400,-0.531387,0.014500,4.185766,0.028934,2.092860
nab4_1tonab4_2,0.000000,2.356194,0.000000,2.819842,0.000000,0.785398
nab4_2tonab4_3,0.000000,2.356194,0.000000,0.000000,0.000000,0.000000
nab4_3tomab4_4,0.000000,3.344751,0.000000,-1.367638,0.000000,0.000000
nab4_1tonab4_5,0.022400,-0.531387,0.014500,4.185766,0.028934,2.092861
nab4_5tonab4_6,0.007467,-0.531382,0.004833,4.185771,0.009645,2.092870
nab4_6tonab4_7,0.007467,-0.531382,0.004833,4.185765,0.009645,2.092869
nab4_7tomab4_8,0.007467,-0.531382,0.004833,4.185769,0.009645,2.092868
nab4_5tonab4_9,0.014933,-0.531390,0.009666,4.185764,0.019289,2.092857
nab4_9tonab4_10,0.007467,-0.531391,0.004833,4.185764,0.009645,2.092856
nab4_10tonab4_11,0.007467,-0.531391,0.004833,4.185759,0.009645,2.092856
nab4_11tomab4_12,0.007467,-0.531391,0.004833,4.185761,0.009645,2.092853
nab4_9tonab4_13,0.007467,-0.531389,0.004833,4.185762,0.009645,2.092858
nab4_13tonab4_14,0.007467,-0.531390,0.004833,4.185762,0.009645,2.092856
nab4_14tonab4_15,0.007467,-0.531391,0.004833,4.185760,0.009645,2.092855
nab4_15tomab4_16,0.007467,-0.531391,0.004833,4.185761,0.009645,2.092853
n00tonF,0.133388,-0.057194,0.200714,4.027475,0.139583,2.093762
nFtonef9,0.133388,-0.057194,0.200714,4.027475,0.139583,2.093762
nef9tonef8,0.133388,-0.057194,0.200714,4.027475,0.139583,2.093763
nef8tonef8_1,0.133388,-0.057194,0.200714,4.027475,0.139583,2.093763
nef8_1tonef8_2,0.133388,-0.057194,0.200714,4.027475,0.139583,2.093763
nef8_2tonef8_3,0.133388,-0.057194,0.200714,4.027475,0.139583,2.093763
nef8_3tonef8_4,0.120296,-0.000478,0.191174,4.019505,0.120294,2.093911
nef8_4tonef8_5,0.120296,-0.000478,0.191174,4.019505,0.120294,2.093911
nef8_5tonef8_6,0.120296,-0.000478,0.191174,4.019505,0.120294,2.093911
nef8_6tonef8_7,0.120296,-0.000478,0.191174,4.019505,0.120294,2.093911
nef8_7tomef8_8,3.125185,-0.000478,4.966547,4.019505,3.125147,2.093911
nef8_3tonef8_9,0.014934,-0.531391,0.009666,4.185761,0.019289,2.092839
nef8_9tonef8_10,0.007467,-0.531391,0.004833,4.185754,0.009645,2.092843
nef8_10tonef8_11,0.007467,-0.531391,0.004833,4.185759,0.009645,2.092839
nef8_9tonef8_12,0.007467,-0.531392,0.004833,4.185756,0.009645,2.092840
nef8_12tonef8_13,0.007467,-0.531391,0.004833,4.185763,0.009645,2.092839
nef8_13tomef8_14,0.007467,-0.531391,0.004833,4.185759,0.009645,2.092839
n00tonG,0.000000,3.714763,0.000000,-1.278176,0.000000,4.000105
nGtongh1,0.000000,3.926991,0.000000,-1.313473,0.000000,3.926991
ngh1tongh2,0.000000,3.926991,0.000000,-1.325818,0.000000,4.248741
ngh2tongh2_1,0.000000,3.538237,0.000000,-1.249046,0.000000,3.926991
ngh2_1tongh2_2,0.000000,3.240653,0.000000,-1.343997,0.000000,3.546484
ngh2_2tongh2_3,0.000000,0.000000,0.000000,-1.249046,0.000000,3.926991
ngh2_3tomgh2_4,0.000000,3.344751,0.000000,0.000000,0.000000,0.203158
